REMARK  Name = VU0411357
REMARK  4 active torsions:
REMARK  status: ('A' for Active; 'I' for Inactive)
REMARK    1  A    between atoms: C_3  and  C_9
REMARK    2  A    between atoms: C_4  and  N_16
REMARK    3  A    between atoms: C_6  and  C_8
REMARK    4  A    between atoms: C_13  and  C_18
REMARK                            x       y       z     vdW  Elec       q    Type
REMARK                         _______ _______ _______ _____ _____    ______ ____
ROOT
ATOM      1  C   UNL     1       0.289   0.691  -0.001  0.00  0.00    +0.038 A 
ATOM      2  C   UNL     1      -0.949   1.416  -0.075  0.00  0.00    +0.002 A 
ATOM      3  C   UNL     1      -2.143   0.663  -0.093  0.00  0.00    +0.032 A 
ATOM      4  C   UNL     1      -2.111  -0.720  -0.058  0.00  0.00    +0.040 A 
ATOM      5  N   UNL     1      -0.976  -1.426  -0.054  0.00  0.00    -0.245 NA
ATOM      6  C   UNL     1      -3.382  -1.518  -0.022  0.00  0.00    +0.065 C 
ATOM     12  C   UNL     1       1.705   1.004   0.149  0.00  0.00    +0.059 A 
ATOM     16  C   UNL     1       2.524  -0.109   0.077  0.00  0.00    +0.112 A 
ATOM     17  S   UNL     1       1.631  -1.548  -0.050  0.00  0.00    -0.056 S 
ATOM     20  C   UNL     1       0.162  -0.701  -0.030  0.00  0.00    +0.112 A 
ENDROOT
BRANCH   2   7
ATOM      7  C   UNL     1      -1.060   2.892  -0.106  0.00  0.00    +0.020 A 
ATOM      8  C   UNL     1      -2.100   3.678   0.384  0.00  0.00    +0.016 A 
ATOM      9  C   UNL     1      -1.870   5.079   0.244  0.00  0.00    +0.008 A 
ATOM     10  C   UNL     1      -0.672   5.334  -0.377  0.00  0.00    +0.046 A 
ATOM     11  S   UNL     1       0.045   3.898  -0.957  0.00  0.00    -0.097 S 
ENDBRANCH   2   7
BRANCH  12  13
ATOM     13  N   UNL     1       2.206   2.246   0.356  0.00  0.00    -0.356 N 
ATOM     14  H   UNL     1       1.608   3.071   0.291  0.00  0.00    +0.142 HD
ATOM     15  H   UNL     1       3.190   2.476   0.224  0.00  0.00    +0.142 HD
ENDBRANCH  12  13
BRANCH  16  18
ATOM     18  C   UNL     1       3.951  -0.110   0.116  0.00  0.00    +0.108 C 
ATOM     19  N   UNL     1       5.114  -0.082   0.130  0.00  0.00    -0.190 NA
ENDBRANCH  16  18
TORSDOF 3
