REMARK  Name = VU0407361
REMARK  4 active torsions:
REMARK  status: ('A' for Active; 'I' for Inactive)
REMARK    1  A    between atoms: S_1  and  C_2
REMARK    2  A    between atoms: S_1  and  N_8
REMARK    3  A    between atoms: N_8  and  C_15
REMARK    4  A    between atoms: C_13  and  C_16
REMARK                            x       y       z     vdW  Elec       q    Type
REMARK                         _______ _______ _______ _____ _____    ______ ____
ROOT
ATOM      7  C   UNL     1       0.539  -1.677  -0.064  0.00  0.00    +0.106 A 
ATOM      8  C   UNL     1       1.439  -2.736   0.058  0.00  0.00    +0.029 A 
ATOM      9  C   UNL     1       0.969  -4.048  -0.020  0.00  0.00    +0.010 A 
ATOM     10  C   UNL     1      -0.394  -4.313  -0.231  0.00  0.00    -0.018 A 
ATOM     11  C   UNL     1      -1.299  -3.234  -0.378  0.00  0.00    -0.016 A 
ATOM     12  C   UNL     1      -2.655  -3.508  -0.612  0.00  0.00    +0.009 A 
ATOM     13  C   UNL     1      -3.116  -4.825  -0.693  0.00  0.00    +0.004 A 
ATOM     14  C   UNL     1      -2.234  -5.897  -0.523  0.00  0.00    -0.050 A 
ATOM     15  C   UNL     1      -2.735  -7.307  -0.626  0.00  0.00    +0.044 C 
ATOM     16  C   UNL     1      -0.878  -5.631  -0.297  0.00  0.00    +0.012 A 
ATOM     17  C   UNL     1      -0.822  -1.917  -0.282  0.00  0.00    +0.037 A 
ENDROOT
BRANCH   7   1
ATOM      1  S   UNL     1       1.105  -0.010   0.144  0.00  0.00    +0.058 S 
ATOM      5  O   UNL     1       0.309   0.582   1.195  0.00  0.00    -0.153 OA
ATOM      6  O   UNL     1       2.551  -0.007   0.187  0.00  0.00    -0.153 OA
BRANCH   1   2
ATOM      2  N   UNL     1       0.627   0.746  -1.283  0.00  0.00    -0.193 NA
ATOM      3  H   UNL     1       0.146   1.624  -1.086  0.00  0.00    +0.148 HD
ATOM      4  C   UNL     1       1.550   0.726  -2.413  0.00  0.00    +0.127 C 
ENDBRANCH   1   2
ENDBRANCH   7   1
TORSDOF 2
