REMARK  Name = VU0411174
REMARK  4 active torsions:
REMARK  status: ('A' for Active; 'I' for Inactive)
REMARK    1  A    between atoms: C_1  and  C_10
REMARK    2  A    between atoms: N_3  and  C_15
REMARK    3  A    between atoms: C_6  and  C_7
REMARK    4  A    between atoms: N_8  and  C_10
REMARK                            x       y       z     vdW  Elec       q    Type
REMARK                         _______ _______ _______ _____ _____    ______ ____
ROOT
ATOM      1  C   UNL     1       2.296   0.156   0.001  0.00  0.00    +0.128 A 
ATOM     12  N   UNL     1       1.543  -1.001   0.001  0.00  0.00    -0.329 N 
ATOM     13  C   UNL     1       2.027  -2.362  -0.002  0.00  0.00    +0.150 C 
ATOM     14  C   UNL     1       0.213  -0.656   0.001  0.00  0.00    +0.069 A 
ATOM     15  C   UNL     1       0.221   0.733   0.001  0.00  0.00    +0.089 A 
ATOM     16  C   UNL     1      -1.003   1.422   0.002  0.00  0.00    +0.030 A 
ATOM     17  C   UNL     1      -2.197   0.686   0.003  0.00  0.00    +0.002 A 
ATOM     18  C   UNL     1      -2.177  -0.709   0.003  0.00  0.00    +0.002 A 
ATOM     19  C   UNL     1      -0.969  -1.413   0.002  0.00  0.00    +0.028 A 
ATOM     20  N   UNL     1       1.510   1.220   0.001  0.00  0.00    -0.231 NA
ENDROOT
BRANCH   1   2
ATOM      2  C   UNL     1       3.789   0.136   0.000  0.00  0.00    +0.179 C 
BRANCH   2   3
ATOM      3  N   UNL     1       4.356   1.461  -0.002  0.00  0.00    -0.304 N 
ATOM      4  H   UNL     1       3.734   2.262  -0.007  0.00  0.00    +0.149 HD
ATOM      5  C   UNL     1       5.728   1.603  -0.003  0.00  0.00    +0.251 C 
ATOM      6  O   UNL     1       6.450   0.605   0.002  0.00  0.00    -0.270 OA
BRANCH   5   7
ATOM      7  C   UNL     1       6.281   2.951  -0.013  0.00  0.00    +0.074 A 
ATOM      8  C   UNL     1       7.630   3.269  -0.016  0.00  0.00    +0.021 A 
ATOM      9  C   UNL     1       7.870   4.671  -0.029  0.00  0.00    +0.008 A 
ATOM     10  C   UNL     1       6.694   5.387  -0.035  0.00  0.00    +0.046 A 
ATOM     11  S   UNL     1       5.319   4.364  -0.024  0.00  0.00    -0.092 S 
ENDBRANCH   5   7
ENDBRANCH   2   3
ENDBRANCH   1   2
TORSDOF 3
